function mpc = case118_pso

%% MATPOWER Case Format : Version 2
mpc.version = '2';

%%-----  Power Flow Data  -----% 
%% system MVA base
mpc.baseMVA = 100.000000;


%%    branch    data
%   fbus  tbus     r         x         b      rateA  rateB  rateC  ratio  angle status angmin angmax
mpc.branch = [
    1       2       0.030300000000000  0.099900000000000  0.025400   9900.00  0.00    0.00    0.000000000   0.000000000   1       -360.000  360.000 ;
    1       3       0.012900000000000  0.042400000000000  0.010820   9900.00  0.00    0.00    0.000000000   0.000000000   1       -360.000  360.000 ;
    4       5       0.001760000000000  0.007980000000000  0.002100   9900.00  0.00    0.00    0.000000000   0.000000000   1       -360.000  360.000 ;
    3       5       0.024100000000000  0.108000000000000  0.028400   9900.00  0.00    0.00    0.000000000   0.000000000   1       -360.000  360.000 ;
    5       6       0.011900000000000  0.054000000000000  0.014260   9900.00  0.00    0.00    0.000000000   0.000000000   1       -360.000  360.000 ;
    6       7       0.004590000000000  0.020800000000000  0.005500   9900.00  0.00    0.00    0.000000000   0.000000000   1       -360.000  360.000 ;
    8       9       0.002440000000000  0.030500000000000  1.162000   9900.00  0.00    0.00    0.000000000   0.000000000   1       -360.000  360.000 ;
    8       5       0.000000000000000  0.026700000000000  0.000000   9900.00  0.00    0.00    0.975000000   0.000000000   1       -360.000  360.000 ;
    9       10      0.002580000000000  0.032200000000000  1.230000   9900.00  0.00    0.00    0.000000000   0.000000000   1       -360.000  360.000 ;
    4       11      0.020900000000000  0.068800000000000  0.017480   9900.00  0.00    0.00    0.000000000   0.000000000   1       -360.000  360.000 ;
    5       11      0.020300000000000  0.068200000000000  0.017380   9900.00  0.00    0.00    0.000000000   0.000000000   1       -360.000  360.000 ;
    11      12      0.005950000000000  0.019600000000000  0.005020   9900.00  0.00    0.00    0.000000000   0.000000000   1       -360.000  360.000 ;
    2       12      0.018700000000000  0.061600000000000  0.015720   9900.00  0.00    0.00    0.000000000   0.000000000   1       -360.000  360.000 ;
    3       12      0.048400000000000  0.160000000000000  0.040600   9900.00  0.00    0.00    0.000000000   0.000000000   1       -360.000  360.000 ;
    7       12      0.008620000000000  0.034000000000000  0.008740   9900.00  0.00    0.00    0.000000000   0.000000000   1       -360.000  360.000 ;
    11      13      0.022250000000000  0.073100000000000  0.018760   9900.00  0.00    0.00    0.000000000   0.000000000   1       -360.000  360.000 ;
    12      14      0.021500000000000  0.070700000000000  0.018160   9900.00  0.00    0.00    0.000000000   0.000000000   1       -360.000  360.000 ;
    13      15      0.074400000000000  0.244400000000000  0.062680   9900.00  0.00    0.00    0.000000000   0.000000000   1       -360.000  360.000 ;
    14      15      0.059500000000000  0.195000000000000  0.050200   9900.00  0.00    0.00    0.000000000   0.000000000   1       -360.000  360.000 ;
    12      16      0.021200000000000  0.083400000000000  0.021400   9900.00  0.00    0.00    0.000000000   0.000000000   1       -360.000  360.000 ;
    15      17      0.013200000000000  0.043700000000000  0.044400   9900.00  0.00    0.00    0.000000000   0.000000000   1       -360.000  360.000 ;
    16      17      0.045400000000000  0.180100000000000  0.046600   9900.00  0.00    0.00    0.000000000   0.000000000   1       -360.000  360.000 ;
    17      18      0.012300000000000  0.050500000000000  0.012980   9900.00  0.00    0.00    0.000000000   0.000000000   1       -360.000  360.000 ;
    18      19      0.011190000000000  0.049300000000000  0.011420   9900.00  0.00    0.00    0.000000000   0.000000000   1       -360.000  360.000 ;
    19      20      0.025200000000000  0.117000000000000  0.029800   9900.00  0.00    0.00    0.000000000   0.000000000   1       -360.000  360.000 ;
    15      19      0.012000000000000  0.039400000000000  0.010100   9900.00  0.00    0.00    0.000000000   0.000000000   1       -360.000  360.000 ;
    20      21      0.018300000000000  0.084900000000000  0.021600   9900.00  0.00    0.00    0.000000000   0.000000000   1       -360.000  360.000 ;
    21      22      0.020900000000000  0.097000000000000  0.024600   9900.00  0.00    0.00    0.000000000   0.000000000   1       -360.000  360.000 ;
    22      23      0.034200000000000  0.159000000000000  0.040400   9900.00  0.00    0.00    0.000000000   0.000000000   1       -360.000  360.000 ;
    23      24      0.013500000000000  0.049200000000000  0.049800   9900.00  0.00    0.00    0.000000000   0.000000000   1       -360.000  360.000 ;
    23      25      0.015600000000000  0.080000000000000  0.086400   9900.00  0.00    0.00    0.000000000   0.000000000   1       -360.000  360.000 ;
    26      25      0.000000000000000  0.038200000000000  0.000000   9900.00  0.00    0.00    1.050000000   0.000000000   1       -360.000  360.000 ;
    25      27      0.031800000000000  0.163000000000000  0.176400   9900.00  0.00    0.00    0.000000000   0.000000000   1       -360.000  360.000 ;
    27      28      0.019130000000000  0.085500000000000  0.021600   9900.00  0.00    0.00    0.000000000   0.000000000   1       -360.000  360.000 ;
    28      29      0.023700000000000  0.094300000000000  0.023800   9900.00  0.00    0.00    0.000000000   0.000000000   1       -360.000  360.000 ;
    30      17      0.000000000000000  0.038800000000000  0.000000   9900.00  0.00    0.00    0.987500000   0.000000000   1       -360.000  360.000 ;
    8       30      0.004310000000000  0.050400000000000  0.514000   9900.00  0.00    0.00    0.000000000   0.000000000   1       -360.000  360.000 ;
    26      30      0.007990000000000  0.086000000000000  0.908000   9900.00  0.00    0.00    0.000000000   0.000000000   1       -360.000  360.000 ;
    17      31      0.047400000000000  0.156300000000000  0.039900   9900.00  0.00    0.00    0.000000000   0.000000000   1       -360.000  360.000 ;
    29      31      0.010800000000000  0.033100000000000  0.008300   9900.00  0.00    0.00    0.000000000   0.000000000   1       -360.000  360.000 ;
    23      32      0.031700000000000  0.115300000000000  0.117300   9900.00  0.00    0.00    0.000000000   0.000000000   1       -360.000  360.000 ;
    31      32      0.029800000000000  0.098500000000000  0.025100   9900.00  0.00    0.00    0.000000000   0.000000000   1       -360.000  360.000 ;
    27      32      0.022900000000000  0.075500000000000  0.019260   9900.00  0.00    0.00    0.000000000   0.000000000   1       -360.000  360.000 ;
    15      33      0.038000000000000  0.124400000000000  0.031940   9900.00  0.00    0.00    0.000000000   0.000000000   1       -360.000  360.000 ;
    19      34      0.075200000000000  0.247000000000000  0.063200   9900.00  0.00    0.00    0.000000000   0.000000000   1       -360.000  360.000 ;
    35      36      0.002240000000000  0.010200000000000  0.002680   9900.00  0.00    0.00    0.000000000   0.000000000   1       -360.000  360.000 ;
    35      37      0.011000000000000  0.049700000000000  0.013180   9900.00  0.00    0.00    0.000000000   0.000000000   1       -360.000  360.000 ;
    33      37      0.041500000000000  0.142000000000000  0.036600   9900.00  0.00    0.00    0.000000000   0.000000000   1       -360.000  360.000 ;
    34      36      0.008710000000000  0.026800000000000  0.005680   9900.00  0.00    0.00    0.000000000   0.000000000   1       -360.000  360.000 ;
    34      37      0.002560000000000  0.009400000000000  0.009840   9900.00  0.00    0.00    0.000000000   0.000000000   1       -360.000  360.000 ;
    38      37      0.000000000000000  0.037500000000000  0.000000   9900.00  0.00    0.00    0.975000000   0.000000000   1       -360.000  360.000 ;
    37      39      0.032100000000000  0.106000000000000  0.027000   9900.00  0.00    0.00    0.000000000   0.000000000   1       -360.000  360.000 ;
    37      40      0.059300000000000  0.168000000000000  0.042000   9900.00  0.00    0.00    0.000000000   0.000000000   1       -360.000  360.000 ;
    30      38      0.004640000000000  0.054000000000000  0.422000   9900.00  0.00    0.00    0.000000000   0.000000000   1       -360.000  360.000 ;
    39      40      0.018400000000000  0.060500000000000  0.015520   9900.00  0.00    0.00    0.000000000   0.000000000   1       -360.000  360.000 ;
    40      41      0.014500000000000  0.048700000000000  0.012220   9900.00  0.00    0.00    0.000000000   0.000000000   1       -360.000  360.000 ;
    40      42      0.055500000000000  0.183000000000000  0.046600   9900.00  0.00    0.00    0.000000000   0.000000000   1       -360.000  360.000 ;
    41      42      0.041000000000000  0.135000000000000  0.034400   9900.00  0.00    0.00    0.000000000   0.000000000   1       -360.000  360.000 ;
    43      44      0.060800000000000  0.245400000000000  0.060680   9900.00  0.00    0.00    0.000000000   0.000000000   1       -360.000  360.000 ;
    34      43      0.041300000000000  0.168100000000000  0.042260   9900.00  0.00    0.00    0.000000000   0.000000000   1       -360.000  360.000 ;
    44      45      0.022400000000000  0.090100000000000  0.022400   9900.00  0.00    0.00    0.000000000   0.000000000   1       -360.000  360.000 ;
    45      46      0.040000000000000  0.135600000000000  0.033200   9900.00  0.00    0.00    0.000000000   0.000000000   1       -360.000  360.000 ;
    46      47      0.038000000000000  0.127000000000000  0.031600   9900.00  0.00    0.00    0.000000000   0.000000000   1       -360.000  360.000 ;
    46      48      0.060100000000000  0.189000000000000  0.047200   9900.00  0.00    0.00    0.000000000   0.000000000   1       -360.000  360.000 ;
    47      49      0.019100000000000  0.062500000000000  0.016040   9900.00  0.00    0.00    0.000000000   0.000000000   1       -360.000  360.000 ;
    42      49      0.071500000000000  0.323000000000000  0.086000   9900.00  0.00    0.00    0.000000000   0.000000000   1       -360.000  360.000 ;
    42      49      0.071500000000000  0.323000000000000  0.086000   9900.00  0.00    0.00    0.000000000   0.000000000   1       -360.000  360.000 ;
    45      49      0.068400000000000  0.186000000000000  0.044400   9900.00  0.00    0.00    0.000000000   0.000000000   1       -360.000  360.000 ;
    48      49      0.017900000000000  0.050500000000000  0.012580   9900.00  0.00    0.00    0.000000000   0.000000000   1       -360.000  360.000 ;
    49      50      0.026700000000000  0.075200000000000  0.018740   9900.00  0.00    0.00    0.000000000   0.000000000   1       -360.000  360.000 ;
    49      51      0.048600000000000  0.137000000000000  0.034200   9900.00  0.00    0.00    0.000000000   0.000000000   1       -360.000  360.000 ;
    51      52      0.020300000000000  0.058800000000000  0.013960   9900.00  0.00    0.00    0.000000000   0.000000000   1       -360.000  360.000 ;
    52      53      0.040500000000000  0.163500000000000  0.040580   9900.00  0.00    0.00    0.000000000   0.000000000   1       -360.000  360.000 ;
    53      54      0.026300000000000  0.122000000000000  0.031000   9900.00  0.00    0.00    0.000000000   0.000000000   1       -360.000  360.000 ;
    49      54      0.073000000000000  0.289000000000000  0.073800   9900.00  0.00    0.00    0.000000000   0.000000000   1       -360.000  360.000 ;
    49      54      0.086900000000000  0.291000000000000  0.073000   9900.00  0.00    0.00    0.000000000   0.000000000   1       -360.000  360.000 ;
    54      55      0.016900000000000  0.070700000000000  0.020200   9900.00  0.00    0.00    0.000000000   0.000000000   1       -360.000  360.000 ;
    54      56      0.002750000000000  0.009550000000000  0.007320   9900.00  0.00    0.00    0.000000000   0.000000000   1       -360.000  360.000 ;
    55      56      0.004880000000000  0.015100000000000  0.003740   9900.00  0.00    0.00    0.000000000   0.000000000   1       -360.000  360.000 ;
    56      57      0.034300000000000  0.096600000000000  0.024200   9900.00  0.00    0.00    0.000000000   0.000000000   1       -360.000  360.000 ;
    50      57      0.047400000000000  0.134000000000000  0.033200   9900.00  0.00    0.00    0.000000000   0.000000000   1       -360.000  360.000 ;
    56      58      0.034300000000000  0.096600000000000  0.024200   9900.00  0.00    0.00    0.000000000   0.000000000   1       -360.000  360.000 ;
    51      58      0.025500000000000  0.071900000000000  0.017880   9900.00  0.00    0.00    0.000000000   0.000000000   1       -360.000  360.000 ;
    54      59      0.050300000000000  0.229300000000000  0.059800   9900.00  0.00    0.00    0.000000000   0.000000000   1       -360.000  360.000 ;
    56      59      0.082500000000000  0.251000000000000  0.056900   9900.00  0.00    0.00    0.000000000   0.000000000   1       -360.000  360.000 ;
    56      59      0.080300000000000  0.239000000000000  0.053600   9900.00  0.00    0.00    0.000000000   0.000000000   1       -360.000  360.000 ;
    55      59      0.047390000000000  0.215800000000000  0.056460   9900.00  0.00    0.00    0.000000000   0.000000000   1       -360.000  360.000 ;
    59      60      0.031700000000000  0.145000000000000  0.037600   9900.00  0.00    0.00    0.000000000   0.000000000   1       -360.000  360.000 ;
    59      61      0.032800000000000  0.150000000000000  0.038800   9900.00  0.00    0.00    0.000000000   0.000000000   1       -360.000  360.000 ;
    60      61      0.002640000000000  0.013500000000000  0.014560   9900.00  0.00    0.00    0.000000000   0.000000000   1       -360.000  360.000 ;
    60      62      0.012300000000000  0.056100000000000  0.014680   9900.00  0.00    0.00    0.000000000   0.000000000   1       -360.000  360.000 ;
    61      62      0.008240000000000  0.037600000000000  0.009800   9900.00  0.00    0.00    0.000000000   0.000000000   1       -360.000  360.000 ;
    63      59      0.000000000000000  0.038600000000000  0.000000   9900.00  0.00    0.00    0.987500000   0.000000000   1       -360.000  360.000 ;
    63      64      0.001720000000000  0.020000000000000  0.216000   9900.00  0.00    0.00    0.000000000   0.000000000   1       -360.000  360.000 ;
    64      61      0.000000000000000  0.026800000000000  0.000000   9900.00  0.00    0.00    1.000000000   0.000000000   1       -360.000  360.000 ;
    38      65      0.009010000000000  0.098600000000000  1.046000   9900.00  0.00    0.00    0.000000000   0.000000000   1       -360.000  360.000 ;
    64      65      0.002690000000000  0.030200000000000  0.380000   9900.00  0.00    0.00    0.000000000   0.000000000   1       -360.000  360.000 ;
    49      66      0.018000000000000  0.091900000000000  0.024800   9900.00  0.00    0.00    0.000000000   0.000000000   1       -360.000  360.000 ;
    49      66      0.018000000000000  0.091900000000000  0.024800   9900.00  0.00    0.00    0.000000000   0.000000000   1       -360.000  360.000 ;
    62      66      0.048200000000000  0.218000000000000  0.057800   9900.00  0.00    0.00    0.000000000   0.000000000   1       -360.000  360.000 ;
    62      67      0.025800000000000  0.117000000000000  0.031000   9900.00  0.00    0.00    0.000000000   0.000000000   1       -360.000  360.000 ;
    65      66      0.000000000000000  0.037000000000000  0.000000   9900.00  0.00    0.00    0.987500000   0.000000000   1       -360.000  360.000 ;
    66      67      0.022400000000000  0.101500000000000  0.026820   9900.00  0.00    0.00    0.000000000   0.000000000   1       -360.000  360.000 ;
    65      68      0.001380000000000  0.016000000000000  0.638000   9900.00  0.00    0.00    0.000000000   0.000000000   1       -360.000  360.000 ;
    47      69      0.084400000000000  0.277800000000000  0.070920   9900.00  0.00    0.00    0.000000000   0.000000000   1       -360.000  360.000 ;
    49      69      0.098500000000000  0.324000000000000  0.082800   9900.00  0.00    0.00    0.000000000   0.000000000   1       -360.000  360.000 ;
    68      69      0.000000000000000  0.037000000000000  0.000000   9900.00  0.00    0.00    0.950000000   0.000000000   1       -360.000  360.000 ;
    69      70      0.030000000000000  0.127000000000000  0.122000   9900.00  0.00    0.00    0.000000000   0.000000000   1       -360.000  360.000 ;
    24      70      0.002210000000000  0.411500000000000  0.101980   9900.00  0.00    0.00    0.000000000   0.000000000   1       -360.000  360.000 ;
    70      71      0.008820000000000  0.035500000000000  0.008780   9900.00  0.00    0.00    0.000000000   0.000000000   1       -360.000  360.000 ;
    24      72      0.048800000000000  0.196000000000000  0.048800   9900.00  0.00    0.00    0.000000000   0.000000000   1       -360.000  360.000 ;
    71      72      0.044600000000000  0.180000000000000  0.044440   9900.00  0.00    0.00    0.000000000   0.000000000   1       -360.000  360.000 ;
    71      73      0.008660000000000  0.045400000000000  0.011780   9900.00  0.00    0.00    0.000000000   0.000000000   1       -360.000  360.000 ;
    70      74      0.040100000000000  0.132300000000000  0.033680   9900.00  0.00    0.00    0.000000000   0.000000000   1       -360.000  360.000 ;
    70      75      0.042800000000000  0.141000000000000  0.036000   9900.00  0.00    0.00    0.000000000   0.000000000   1       -360.000  360.000 ;
    69      75      0.040500000000000  0.122000000000000  0.124000   9900.00  0.00    0.00    0.000000000   0.000000000   1       -360.000  360.000 ;
    74      75      0.012300000000000  0.040600000000000  0.010340   9900.00  0.00    0.00    0.000000000   0.000000000   1       -360.000  360.000 ;
    76      77      0.044400000000000  0.148000000000000  0.036800   9900.00  0.00    0.00    0.000000000   0.000000000   1       -360.000  360.000 ;
    69      77      0.030900000000000  0.101000000000000  0.103800   9900.00  0.00    0.00    0.000000000   0.000000000   1       -360.000  360.000 ;
    75      77      0.060100000000000  0.199900000000000  0.049780   9900.00  0.00    0.00    0.000000000   0.000000000   1       -360.000  360.000 ;
    77      78      0.003760000000000  0.012400000000000  0.012640   9900.00  0.00    0.00    0.000000000   0.000000000   1       -360.000  360.000 ;
    78      79      0.005460000000000  0.024400000000000  0.006480   9900.00  0.00    0.00    0.000000000   0.000000000   1       -360.000  360.000 ;
    77      80      0.017000000000000  0.048500000000000  0.047200   9900.00  0.00    0.00    0.000000000   0.000000000   1       -360.000  360.000 ;
    77      80      0.029400000000000  0.105000000000000  0.022800   9900.00  0.00    0.00    0.000000000   0.000000000   1       -360.000  360.000 ;
    79      80      0.015600000000000  0.070400000000000  0.018700   9900.00  0.00    0.00    0.000000000   0.000000000   1       -360.000  360.000 ;
    68      81      0.001750000000000  0.020200000000000  0.808000   9900.00  0.00    0.00    0.000000000   0.000000000   1       -360.000  360.000 ;
    81      80      0.000000000000000  0.037000000000000  0.000000   9900.00  0.00    0.00    0.987500000   0.000000000   1       -360.000  360.000 ;
    77      82      0.029800000000000  0.085300000000000  0.081740   9900.00  0.00    0.00    0.000000000   0.000000000   1       -360.000  360.000 ;
    82      83      0.011200000000000  0.036650000000000  0.037960   9900.00  0.00    0.00    0.000000000   0.000000000   1       -360.000  360.000 ;
    83      84      0.062500000000000  0.132000000000000  0.025800   9900.00  0.00    0.00    0.000000000   0.000000000   1       -360.000  360.000 ;
    83      85      0.043000000000000  0.148000000000000  0.034800   9900.00  0.00    0.00    0.000000000   0.000000000   1       -360.000  360.000 ;
    84      85      0.030200000000000  0.064100000000000  0.012340   9900.00  0.00    0.00    0.000000000   0.000000000   1       -360.000  360.000 ;
    85      86      0.035000000000000  0.123000000000000  0.027600   9900.00  0.00    0.00    0.000000000   0.000000000   1       -360.000  360.000 ;
    86      87      0.028280000000000  0.207400000000000  0.044500   9900.00  0.00    0.00    0.000000000   0.000000000   1       -360.000  360.000 ;
    85      88      0.020000000000000  0.102000000000000  0.027600   9900.00  0.00    0.00    0.000000000   0.000000000   1       -360.000  360.000 ;
    85      89      0.023900000000000  0.173000000000000  0.047000   9900.00  0.00    0.00    0.000000000   0.000000000   1       -360.000  360.000 ;
    88      89      0.013900000000000  0.071200000000000  0.019340   9900.00  0.00    0.00    0.000000000   0.000000000   1       -360.000  360.000 ;
    89      90      0.051800000000000  0.188000000000000  0.052800   9900.00  0.00    0.00    0.000000000   0.000000000   1       -360.000  360.000 ;
    89      90      0.023800000000000  0.099700000000000  0.106000   9900.00  0.00    0.00    0.000000000   0.000000000   1       -360.000  360.000 ;
    90      91      0.025400000000000  0.083600000000000  0.021400   9900.00  0.00    0.00    0.000000000   0.000000000   1       -360.000  360.000 ;
    89      92      0.009900000000000  0.050500000000000  0.054800   9900.00  0.00    0.00    0.000000000   0.000000000   1       -360.000  360.000 ;
    89      92      0.039300000000000  0.158100000000000  0.041400   9900.00  0.00    0.00    0.000000000   0.000000000   1       -360.000  360.000 ;
    91      92      0.038700000000000  0.127200000000000  0.032680   9900.00  0.00    0.00    0.000000000   0.000000000   1       -360.000  360.000 ;
    92      93      0.025800000000000  0.084800000000000  0.021800   9900.00  0.00    0.00    0.000000000   0.000000000   1       -360.000  360.000 ;
    92      94      0.048100000000000  0.158000000000000  0.040600   9900.00  0.00    0.00    0.000000000   0.000000000   1       -360.000  360.000 ;
    93      94      0.022300000000000  0.073200000000000  0.018760   9900.00  0.00    0.00    0.000000000   0.000000000   1       -360.000  360.000 ;
    94      95      0.013200000000000  0.043400000000000  0.011100   9900.00  0.00    0.00    0.000000000   0.000000000   1       -360.000  360.000 ;
    80      96      0.035600000000000  0.182000000000000  0.049400   9900.00  0.00    0.00    0.000000000   0.000000000   1       -360.000  360.000 ;
    82      96      0.016200000000000  0.053000000000000  0.054400   9900.00  0.00    0.00    0.000000000   0.000000000   1       -360.000  360.000 ;
    94      96      0.026900000000000  0.086900000000000  0.023000   9900.00  0.00    0.00    0.000000000   0.000000000   1       -360.000  360.000 ;
    80      97      0.018300000000000  0.093400000000000  0.025400   9900.00  0.00    0.00    0.000000000   0.000000000   1       -360.000  360.000 ;
    80      98      0.023800000000000  0.108000000000000  0.028600   9900.00  0.00    0.00    0.000000000   0.000000000   1       -360.000  360.000 ;
    80      99      0.045400000000000  0.206000000000000  0.054600   9900.00  0.00    0.00    0.000000000   0.000000000   1       -360.000  360.000 ;
    92      100     0.064800000000000  0.295000000000000  0.047200   9900.00  0.00    0.00    0.000000000   0.000000000   1       -360.000  360.000 ;
    94      100     0.017800000000000  0.058000000000000  0.060400   9900.00  0.00    0.00    0.000000000   0.000000000   1       -360.000  360.000 ;
    95      96      0.017100000000000  0.054700000000000  0.014740   9900.00  0.00    0.00    0.000000000   0.000000000   1       -360.000  360.000 ;
    96      97      0.017300000000000  0.088500000000000  0.024000   9900.00  0.00    0.00    0.000000000   0.000000000   1       -360.000  360.000 ;
    98      100     0.039700000000000  0.179000000000000  0.047600   9900.00  0.00    0.00    0.000000000   0.000000000   1       -360.000  360.000 ;
    99      100     0.018000000000000  0.081300000000000  0.021600   9900.00  0.00    0.00    0.000000000   0.000000000   1       -360.000  360.000 ;
    100     101     0.027700000000000  0.126200000000000  0.032800   9900.00  0.00    0.00    0.000000000   0.000000000   1       -360.000  360.000 ;
    92      102     0.012300000000000  0.055900000000000  0.014640   9900.00  0.00    0.00    0.000000000   0.000000000   1       -360.000  360.000 ;
    101     102     0.024600000000000  0.112000000000000  0.029400   9900.00  0.00    0.00    0.000000000   0.000000000   1       -360.000  360.000 ;
    100     103     0.016000000000000  0.052500000000000  0.053600   9900.00  0.00    0.00    0.000000000   0.000000000   1       -360.000  360.000 ;
    100     104     0.045100000000000  0.204000000000000  0.054100   9900.00  0.00    0.00    0.000000000   0.000000000   1       -360.000  360.000 ;
    103     104     0.046600000000000  0.158400000000000  0.040700   9900.00  0.00    0.00    0.000000000   0.000000000   1       -360.000  360.000 ;
    103     105     0.053500000000000  0.162500000000000  0.040800   9900.00  0.00    0.00    0.000000000   0.000000000   1       -360.000  360.000 ;
    100     106     0.060500000000000  0.229000000000000  0.062000   9900.00  0.00    0.00    0.000000000   0.000000000   1       -360.000  360.000 ;
    104     105     0.009940000000000  0.037800000000000  0.009860   9900.00  0.00    0.00    0.000000000   0.000000000   1       -360.000  360.000 ;
    105     106     0.014000000000000  0.054700000000000  0.014340   9900.00  0.00    0.00    0.000000000   0.000000000   1       -360.000  360.000 ;
    105     107     0.053000000000000  0.183000000000000  0.047200   9900.00  0.00    0.00    0.000000000   0.000000000   1       -360.000  360.000 ;
    105     108     0.026100000000000  0.070300000000000  0.018440   9900.00  0.00    0.00    0.000000000   0.000000000   1       -360.000  360.000 ;
    106     107     0.053000000000000  0.183000000000000  0.047200   9900.00  0.00    0.00    0.000000000   0.000000000   1       -360.000  360.000 ;
    108     109     0.010500000000000  0.028800000000000  0.007600   9900.00  0.00    0.00    0.000000000   0.000000000   1       -360.000  360.000 ;
    103     110     0.039060000000000  0.181300000000000  0.046100   9900.00  0.00    0.00    0.000000000   0.000000000   1       -360.000  360.000 ;
    109     110     0.027800000000000  0.076200000000000  0.020200   9900.00  0.00    0.00    0.000000000   0.000000000   1       -360.000  360.000 ;
    110     111     0.022000000000000  0.075500000000000  0.020000   9900.00  0.00    0.00    0.000000000   0.000000000   1       -360.000  360.000 ;
    110     112     0.024700000000000  0.064000000000000  0.062000   9900.00  0.00    0.00    0.000000000   0.000000000   1       -360.000  360.000 ;
    17      113     0.009130000000000  0.030100000000000  0.007680   9900.00  0.00    0.00    0.000000000   0.000000000   1       -360.000  360.000 ;
    32      113     0.061500000000000  0.203000000000000  0.051800   9900.00  0.00    0.00    0.000000000   0.000000000   1       -360.000  360.000 ;
    32      114     0.013500000000000  0.061200000000000  0.016280   9900.00  0.00    0.00    0.000000000   0.000000000   1       -360.000  360.000 ;
    27      115     0.016400000000000  0.074100000000000  0.019720   9900.00  0.00    0.00    0.000000000   0.000000000   1       -360.000  360.000 ;
    114     115     0.002300000000000  0.010400000000000  0.002760   9900.00  0.00    0.00    0.000000000   0.000000000   1       -360.000  360.000 ;
    68      116     0.000340000000000  0.004050000000000  0.164000   9900.00  0.00    0.00    0.000000000   0.000000000   1       -360.000  360.000 ;
    12      117     0.032900000000000  0.140000000000000  0.035800   9900.00  0.00    0.00    0.000000000   0.000000000   1       -360.000  360.000 ;
    75      118     0.014500000000000  0.048100000000000  0.011980   9900.00  0.00    0.00    0.000000000   0.000000000   1       -360.000  360.000 ;
    76      118     0.016400000000000  0.054400000000000  0.013560   9900.00  0.00    0.00    0.000000000   0.000000000   1       -360.000  360.000 ;
];


%%    bus    data
% bus_i  type    Pd      Qd    Gs     Bs     area     Vm     Va   baseKV zone  Vmax  Vmin
mpc.bus = [
    1       2       51.000000000    27.000000000    0.000000   0.000000   1       1.034017240   17.233549799   138.0   1       1.06   0.94  ;
    2       1       20.000000000    9.000000000     0.000000   0.000000   1       1.039264999   17.356923796   138.0   1       1.06   0.94  ;
    3       1       39.000000000    10.000000000    0.000000   0.000000   1       1.039170755   17.695709636   138.0   1       1.06   0.94  ;
    4       2       39.000000000    12.000000000    0.000000   0.000000   1       1.059984510   20.343273036   138.0   1       1.06   0.94  ;
    5       1       0.000000000     0.000000000     0.000000   -40.000000  1       1.059999828   20.756068635   138.0   1       1.06   0.94  ;
    6       2       52.000000000    22.000000000    0.000000   0.000000   1       1.052708549   18.485896365   138.0   1       1.06   0.94  ;
    7       1       19.000000000    2.000000000     0.000000   0.000000   1       1.051116379   18.180909978   138.0   1       1.06   0.94  ;
    8       2       28.000000000    0.000000000     0.000000   0.000000   1       1.043441699   24.858640214   345.0   1       1.06   0.94  ;
    9       1       0.000000000     0.000000000     0.000000   0.000000   1       1.059999933   31.089837342   345.0   1       1.06   0.94  ;
    10      2       0.000000000     0.000000000     0.000000   0.000000   1       1.050389779   37.805641410   345.0   1       1.06   0.94  ;
    11      1       70.000000000    23.000000000    0.000000   0.000000   1       1.046620510   18.336338374   138.0   1       1.06   0.94  ;